30

  O     -0.382446    1.447602   -0.456106     
  H     -0.981429    2.191906   -0.397227     
  H      0.471639    1.807358   -0.216635     
  O     -1.704282   -0.508958    0.948501     
  H     -1.086230    0.028196    0.452810     
  H     -1.191583   -0.850423    1.681150     
  O     -0.286712   -0.233482   -2.487986     
  H     -1.133184   -0.270124   -2.933381     
  H     -0.420611    0.383491   -1.768509     
  O     -2.505667    3.213495   -0.663892     
  H     -2.358060    4.156399   -0.590549     
  H     -3.068489    3.117738   -1.432197     
  O     -2.217302    2.805476    2.146856     
  H     -2.260473    3.658861    2.578259     
  H     -2.256339    3.006951    1.211915     
  O      0.445691    3.980738   -2.412807     
  H      0.430469    4.203242   -1.481949     
  H     -0.467276    4.051812   -2.691503     
  O      2.345928    1.716262   -2.572383     
  H      2.201334    1.252679   -3.397255     
  H      1.613433    2.329284   -2.510020     
  O      2.412592   -1.557062   -2.161967     
  H      1.747640   -0.932321   -2.451394     
  H      2.113423   -1.843387   -1.298978     
  O     -2.638105   -0.095480   -3.365366     
  H     -3.289215   -0.019773   -4.062906     
  H     -2.905306   -0.870177   -2.870713     
  O      2.901225    0.939057   -0.021170     
  H      3.596011    0.289405   -0.128208     
  H      2.688845    1.212549   -0.913544     

